24
Anthracene
C     -2.44220   -1.41140   -0.00020
C     -3.59700   -0.69770   -0.00030
C     -3.59700    0.69740   -0.00060
C     -2.44240    1.41140   -0.00020
C     -1.20440    0.73340    0.00040
C      0.00000    1.43470    0.00040
C      1.20440    0.73340    0.00050
C      2.44240    1.41140    0.00000
C      3.59700    0.69740   -0.00030
C      3.59700   -0.69770   -0.00050
C      2.44220   -1.41140   -0.00050
C      1.20440   -0.73320    0.00080
C     -0.00000   -1.43450    0.00040
C     -1.20440   -0.73320    0.00020
H     -2.47040   -2.49110    0.00410
H     -4.54030   -1.22370   -0.00070
H     -4.54040    1.22330   -0.00140
H     -2.47080    2.49100   -0.00070
H      0.00000    2.51470   -0.00010
H      2.47080    2.49100   -0.00050
H      4.54040    1.22330   -0.00070
H      4.54030   -1.22360   -0.00110
H      2.47050   -2.49110   -0.00140
H     -0.00000   -2.51450   -0.00050
